!UKS R2SCAN-3C FREQ AUTOAUX UNO

%freq
  restart true
end

%MaxCore 3000
%pal
 nprocs 8
end
* XYZ 0  3
  C      2.963607    3.900503   -0.877187
  C      0.345670    1.208465   -0.333911
  C     -0.704577    0.841752   -1.178061
  H     -1.050308    1.544311   -1.932118
  C     -1.304069   -0.409806   -1.078440
  H     -2.112918   -0.646704   -1.760657
  C     -0.882344   -1.344957   -0.130467
  H      6.692521    9.834327   -1.150391
  C      0.182114   -0.975692    0.702852
  H      0.546040   -1.667603    1.457896
  C      0.786443    0.269280    0.604892
  H      1.603448    0.526525    1.272756
  C      4.775180    7.786010   -1.509816
  C      2.237912    5.085332   -0.789223
  C      0.850115    5.006077   -0.498356
  C      0.063530    6.188707   -0.359054
  C      0.222692    3.735482   -0.303524
  C     -1.142796    3.698188    0.059376
  C      0.981468    2.538909   -0.445840
  H      4.025299    3.903612   -1.094721
  C      2.356294    2.643119   -0.711127
  C      3.178268    1.502930   -0.852914
  H      3.399262   11.287153   -0.012710
  C      4.013720    8.962045   -1.384356
  C      2.673972    8.823507   -1.065902
  H      2.043227    9.700620   -0.960164
  C      2.067903    7.566298   -0.868530
  H      6.276666    9.759125   -2.878092
  C      2.851864    6.386266   -0.997647
  H      5.827820    7.839793   -1.762943
  C      4.207603    6.540491   -1.319347
  H      4.839277    5.665408   -1.431313
  C      0.672419    7.463459   -0.552524
  C     -1.305366    6.080559   -0.040614
  C      6.101245   10.304442   -1.944114
  C     -0.098983    8.632795   -0.424662
  C     -1.915219    4.849995    0.181659
  H     -1.586238    2.729224    0.256536
  H     -1.868906    7.001693    0.043408
  C     -3.392367    4.720311    0.561716
  C     -4.103459    6.077642    0.604806
  H     -4.068979    6.582748   -0.366639
  H     -5.156359    5.929654    0.866843
  C     -3.499334    4.068354    1.953551
  H     -3.664481    6.742115    1.356754
  H     -2.985462    4.676075    2.705989
  C     -4.105659    3.831649   -0.475572
  H     -4.551582    3.973580    2.245809
  H     -3.054671    3.068605    1.966084
  H      6.478699   11.323383   -2.079273
  H     -5.168180    3.736833   -0.223546
  H     -4.026557    4.266319   -1.477923
  H     -3.678046    2.824446   -0.508761
  C     -1.544718   -2.714550    0.036148
  C     -2.134617   -2.818388    1.455853
  H     -2.876163   -2.030327    1.625162
  H     -2.625930   -3.788983    1.591231
  C     -2.676463   -2.941862   -0.972902
  H     -1.360484   -2.722795    2.223238
  H     -3.113067   -3.933392   -0.813465
  C     -0.495297   -3.824454   -0.160963
  H     -3.478117   -2.204725   -0.855933
  H     -2.313752   -2.900988   -2.005722
  H      4.964814   10.676332    0.542872
  H     -0.963079   -4.810089   -0.049059
  H     -0.053942   -3.765150   -1.162297
  H      0.312296   -3.753547    0.574293
  C      4.610365   10.356481   -1.587572
  C      3.863261   11.066514   -2.732320
  H      3.949967   10.496611   -3.663592
  H      2.798949   11.183662   -2.507551
  C      4.451463   11.170176   -0.289103
  H      4.285512   12.064553   -2.897889
  H      4.881097   12.170919   -0.414732
  H     -1.345293   10.525318   -0.222873
  C     -0.762107    9.641381   -0.318010
  C      8.315277   -7.348880   -1.366536
  H      8.949921   -8.199873   -1.426282
  H      3.146903  -10.088579    0.562986
  C      4.292881   -1.799515   -0.944826
  C      6.782107    1.021512   -1.418692
  C      7.445211    1.396781   -2.593475
  H      7.552724    0.673030   -3.397478
  C      7.945842    2.680332   -2.749379
  H      8.445498    2.930619   -3.681191
  C      7.815452    3.647037   -1.743214
  H      1.057780   -7.871119    0.404658
  C      7.147488    3.267682   -0.576566
  H      7.019699    3.973737    0.237052
  C      6.637131    1.981879   -0.417567
  H      6.125881    1.718235    0.503855
  C      2.602623   -5.781136   -0.719493
  C      5.074240   -2.947473   -1.045611
  C      6.472839   -2.797152   -1.239580
  C      7.327779   -3.937612   -1.309650
  C      7.055086   -1.493723   -1.330124
  C      8.458722   -1.379722   -1.451395
  C      6.225231   -0.339682   -1.261015
  H      3.221369   -1.859770   -0.796309
  C      4.847473   -0.512251   -1.048926
  C      3.972533    0.593335   -0.961800
  H      4.620170   -9.122606    0.375518
  C      3.428064   -6.917445   -0.799159
  C      4.786301   -6.709008   -0.965575
  H      5.464675   -7.553487   -1.036432
  C      5.350592   -5.420179   -1.049800
  H      0.834596   -7.904501   -1.359647
  C      4.502312   -4.281360   -0.967506
  H      1.531233   -5.887711   -0.593247
  C      3.128745   -4.506052   -0.802072
  H      2.445309   -3.666864   -0.739600
  C      6.763460   -5.244537   -1.225715
  C      8.716856   -3.756365   -1.465179
  C      1.359771   -8.374097   -0.520646
  C      7.600059   -6.372824   -1.301620
  C      9.293704   -2.491375   -1.525402
  H      8.884424   -0.383163   -1.472213
  H      9.330592   -4.647229   -1.518775
  C     10.803764   -2.282904   -1.666453
  C     11.574109   -3.607678   -1.706142
  H     11.276120   -4.227362   -2.558942
  H     12.645382   -3.402583   -1.803028
  C     11.317625   -1.460064   -0.469589
  H     11.427378   -4.187289   -0.788397
  H     11.106796   -1.975132    0.473669
  C     11.084375   -1.515541   -2.972817
  H     12.401325   -1.316438   -0.549779
  H     10.851163   -0.471353   -0.426656
  H      1.022106   -9.413865   -0.458356
  H     12.162844   -1.364551   -3.098154
  H     10.711717   -2.074915   -3.837737
  H     10.604280   -0.531666   -2.973294
  C      8.399740    5.045851   -1.951296
  C      9.917545    4.932177   -2.193107
  H     10.143750    4.338891   -3.084222
  H     10.352278    5.928478   -2.334447
  C      7.737734    5.698394   -3.179854
  H     10.411428    4.458801   -1.337805
  H      8.133800    6.709797   -3.330939
  C      8.179092    5.956886   -0.737631
  H      7.926454    5.125724   -4.092833
  H      6.652486    5.769012   -3.050772
  H      3.314314   -8.539804    1.418215
  H      8.604725    6.945241   -0.943004
  H      7.116271    6.094691   -0.512443
  H      8.672017    5.562810    0.157727
  C      2.881094   -8.344332   -0.712302
  C      3.221214   -9.096410   -2.012958
  H      2.777608   -8.592915   -2.878571
  H      4.301967   -9.152689   -2.174243
  C      3.532803   -9.065636    0.482601
  H      2.831305  -10.120057   -1.971053
 * 



