%nprocshared=1
%mem=2gb
%chk=/gpfs/home/gdb20/code/batch-manager/temp/oh-radical_gas_gau_m06-2x_6-31++Gdp/oh-radical_gas_gau_m06-2x_6-31++Gdp.gjf.chk
#opt freq uM062X/6-31++G*

super secret special scripts shaped sthis submission sfile

0 2
O            0.10831326774922       -0.00000000000001        0.00000000000001
H           -0.85499694844922       -0.00000000009999        0.00000000009999


